    7
 
C      -0.1256938291E-03      0.3834994319E-08      0.6781222655E-09
N       0.1499448306E+01     -0.2609289635E-07      0.1055414928E-09
O       0.2057376327E+01      0.1828650844E-07      0.1092531247E+01
O       0.2057376326E+01      0.2911719356E-08     -0.1092531247E+01
H      -0.3289321224E+00      0.1039223913E+01      0.7974184136E-07
H      -0.3289321540E+00     -0.5196118723E+00     -0.8999943382E+00
H      -0.3289321533E+00     -0.5196120090E+00      0.8999942609E+00
